LAMMPS (28 Mar 2023 - Update 1)
units                real
boundary             p p p
box                  tilt large

The 'box' command has been removed and will be ignored

pair_style           lj/cut/coul/cut 10.0 10.0
pair_modify          mix arithmetic tail yes
atom_style           full
special_bonds        amber
bond_style           harmonic
angle_style          harmonic
dihedral_style       fourier
improper_style       cvff
read_data            polymer.data
Reading data file ...
  orthogonal box = (-100 -100 -100) to (100 100 100)
  reading atoms ...
  1508 atoms
  scanning bonds ...
  scanning angles ...
  scanning dihedrals ...
  scanning impropers ...
  reading bonds ...
  1507 bonds
  reading angles ...
  2812 angles
  reading dihedrals ...
  3809 dihedrals
  reading impropers ...
  100 impropers
Finding 1-2 1-3 1-4 neighbors ...
     4 = max # of 1-2 neighbors
    11 = max # of 1-3 neighbors
    22 = max # of 1-4 neighbors
    26 = max # of special neighbors
neigh_modify         delay 0 every 1 check yes
minimize             0.0001 1e-06 1000 10000
Generated 15 of 15 mixed pair_coeff terms from arithmetic mixing rule
Step          Temp          E_pair         E_mol          TotEng         Press
0   0              5012.9944      2609.3671      7622.3615      56.031632
Loop time of 0.290234 on 1 procs for 2 steps with 1508 atoms

Minimization stats:
  Stopping criterion = linesearch alpha is zero
  Energy initial, next-to-last, final =
  Force two-norm initial, final = 658.86188 318.23875
  Force max component initial, final = 210.43685 81.240466
  Final line search alpha, max atom move = 8.5338631e-14 6.9329501e-12
  Iterations, force evaluations = 2 70

fix                  SHAKE all shake 0.0001 20 0 m 1
Finding SHAKE clusters ...
       0 = # of size 2 clusters
     100 = # of size 3 clusters
     202 = # of size 4 clusters
       0 = # of frozen angles
  find clusters CPU = 0.011 seconds

thermo               1000
thermo_style         custom step time pe ke etotal enthalpy temp press vol density
dump                 eq1 all custom 1000 polymer.lammpstrj id type x y z fx fy fz vx vy vz
dump_modify          eq1 sort id pbc yes
timestep             1
fix                  eq1 all nvt temp 300 300 1000
run                  5000
Generated 15 of 15 mixed pair_coeff terms from arithmetic mixing rule
Step          Time          PotEng         KinEng         TotEng        Enthalpy         Temp          Press          Volume        Density
2   2              7437.0639      0              7437.0639      13789.96       0              54.451001      8000000        0.0020843437
Loop time of 13.07 on 1 procs for 5000 steps with 1508 atoms
